*KEYWORD
$> 
$> Primer21.0 Nightly created on: Tue Jun  4 16:27:41 2024
$> LS-DYNA version: R13.0
$> 
$> end_saved_comments
$
$
$
$ ====================
$ MAT (Material) cards
$ ====================
$
*MAT_ELASTIC
         1    7850.0    2.0E11       0.3       0.0       0.0       0.0
$
*MAT_DISCRETE_BEAM_POINT_CONTACT
         2    1000.010000000.0       0.3       0.5       1.0       0.0
       1.0       1.0       1.0       1.0       0.0       0.0       0.0       0.0
       0.0       0.0    1000.0       0.0       0.0       0.0       0.0       0.0
$
$
$
$ =============
$ SECTION cards
$ =============
$
*SECTION_BEAM
         1         1       0.0       0.0       1.0       0.0       0.0         0
     0.762     0.762   0.73025   0.73025       0.0       0.0
$
         2         6       0.0       0.0       0.0      -1.0       0.0         0
    2.0E-4      0.01         0       0.0       0.0       0.0       0.0       0.0
$
$
$
$ ==========
$ PART cards
$ ==========
$
*PART
$HMNAME COMPS       1Part_1

         1         1         1         0         0         0         0         0
$
*PART
$HMNAME COMPS       2Part_2

         2         2         2         0         0         0         0         0
$
$
$
$ ==========
$ NODE cards
$ ==========
$
*NODE
       2             0.0             0.0             0.0       0       0
       5      -6.0960002             0.0             0.0       0       0
      10         -12.192             0.0             0.0       0       0
      20        -20.5994             0.0       4.5974002       0       0
      30        -23.6474             0.0       4.5974002       0       0
      40        -26.6954             0.0       4.5974002       0       0
      50         -28.194             0.0       4.5974002       0       0
      60          -30.48             0.0       4.5974002       0       0
      70      -31.038799             0.0       4.5974002       0       0
      80      -31.597601             0.0       4.5974002       0       0
      90      -33.883598             0.0       4.5974002       0       0
     100      -43.942001             0.0       4.5974002       0       0
     110        -52.1716             0.0       4.5974002       0       0
     112      -56.540401             0.0         22.5044       0       0
     113      -60.807598             0.0       39.877998       0       0
     114      -60.934601             0.0       40.386002       0       0
     115      -61.518799             0.0       42.748199       0       0
     116         -65.278             0.0         58.0644       0       0
     118      -69.646797             0.0       75.945999       0       0
     120         -74.041             0.0       93.827599       0       0
$ ... 997 like lines cut
$
$
$ =============
$ ELEMENT cards
$ =============
$
*ELEMENT_BEAM
       1       1       2       5       0
       2       1       5      10       0
       3       1      10      20       0
       4       1      20      30       0
       5       1      30      40       0
       6       1      40      50       0
       7       1      50      60       0
       8       1      60      70       0
       9       1      70      80       0
      10       1      80      90       0
      11       1      90     100       0
      12       1     100     110       0
      13       1     110     112       0
      14       1     112     113       0
      15       1     113     114       0
      16       1     114     115       0
      17       1     115     116       0
      18       1     116     118       0
      19       1     118     120       0
      20       1     120     122       0
$ ... 997 like lines cut
$
$
$ ============
$ DEFINE cards
$ ============
$
*DEFINE_COORDINATE_VECTOR
         1       1.0       0.0       0.0       0.0       1.0       0.0         5
         2       1.0       0.0       0.0       0.0       1.0       0.0        10
         3       1.0       0.0       0.0       0.0       1.0       0.0        30
         4       1.0       0.0       0.0       0.0       1.0       0.0        60
         5       1.0       0.0       0.0       0.0       1.0       0.0        90
         6       1.0       0.0       0.0       0.0       1.0       0.0       110
         7       1.0       0.0       0.0       0.0       1.0       0.0       112
         8       1.0       0.0       0.0       0.0       1.0       0.0       114
         9       1.0       0.0       0.0       0.0       1.0       0.0       116
        10       1.0       0.0       0.0       0.0       1.0       0.0       118
        11       1.0       0.0       0.0       0.0       1.0       0.0       120
        12       1.0       0.0       0.0       0.0       1.0       0.0       122
        13       1.0       0.0       0.0       0.0       1.0       0.0       130
        14       1.0       0.0       0.0       0.0       1.0       0.0       160
        15       1.0       0.0       0.0       0.0       1.0       0.0       190
        16       1.0       0.0       0.0       0.0       1.0       0.0       200
        17       1.0       0.0       0.0       0.0       1.0       0.0       220
        18       1.0       0.0       0.0       0.0       1.0       0.0       298
        19       1.0       0.0       0.0       0.0       1.0       0.0       300
        20       1.0       0.0       0.0       0.0       1.0       0.0       301
$ ... 134 like lines cut
$
$
$
$ ==============
$ BOUNDARY cards
$ ==============
$
*BOUNDARY_SPC_NODE
         5         1         0         1         1         0         0         0
        10         2         0         1         1         0         0         0
        30         3         0         1         1         0         0         0
        60         4         0         1         1         0         0         0
        90         5         0         1         1         0         0         0
       110         6         0         1         1         0         0         0
       112         7         0         1         1         0         0         0
       114         8         0         1         1         0         0         0
       116         9         0         1         1         0         0         0
       118        10         0         1         1         0         0         0
       120        11         0         1         1         0         0         0
       122        12         0         1         1         0         0         0
       130        13         0         1         1         0         0         0
       160        14         0         1         1         0         0         0
       190        15         0         1         1         0         0         0
       200        16         0         1         1         0         0         0
       220        17         0         1         1         0         0         0
       298        18         0         1         1         0         0         0
       300        19         0         1         1         0         0         0
       301        20         0         1         1         0         0         0
$ ... 134 like lines cut
*BOUNDARY_SPC_SET
         2         0         0         0         1         0         0         0
$
$: Cross-reference summary for SET_NODE 2
$:---------------------------------------
$: SPC <No label>
$
*SET_NODE_LIST_TITLE
NODE RESTRAINT: Y
         2       0.0       0.0       0.0       0.0
         2         5        10        30        60        90       110       112
       114       116       118       120       122       130       160       190
       200       220       298       300       301       302       304       305
       365       395       495       498       499       500       555       595
       625       634       639       645       651       655       670       703
       710       725       730       755       790       795       815       880
       932       937       940       943       948       954       959       965
       971       976       982       987       993       998      1004      1009
      1015      1021      1040      1102      1107      1110      1113      1118
      1124      1129      1200      1320      1410      1453      1458      1460
      1464      1469      1475      1481      1486      1492      1497      1503
      1560      1574      1579      1585      1590      1591      1596      1602
      1607      1615      1650      1680      1700      1790      1795      1801
      1806      1812      1817      1823      1828      1834      1839      1840
      1866      1960      2030      2070      2072      2074      2076      2080
      2090      2110      2120      2121      2122      2123      2124      2125
      2130      2150      2160      2180      2195      2200      2220      2230
      2240      2250      2262      2264      2266      2270      2290      2300
      2310      2320      2330      2340      2350      2360      2370      2380
      2510      3070      4070      4090      4250      4260
$
*BOUNDARY_SPC_SET
         4         0         1         1         1         1         1         1
$
$: Cross-reference summary for SET_NODE 4
$:---------------------------------------
$: SPC <No label>
$
*SET_NODE_LIST_TITLE
NODE RESTRAINT: ANC
         4       0.0       0.0       0.0       0.0
       249      1230      2014
$
*BOUNDARY_SPC_SET
         3         0         1         1         1         1         1         1
$
$: Cross-reference summary for SET_NODE 3
$:---------------------------------------
$: SPC <No label>
$
*SET_NODE_LIST_TITLE
NODE RESTRAINT: +Y
         3       0.0       0.0       0.0       0.0
      4441      4442      4443      4444      4445      4446      4447      4448
      4449      4450      4451      4452      4453      4454      4455      4456
      4457      4458      4459      4460      4461      4462      4463      4464
      4465      4466      4467      4468      4469      4470      4471      4472
      4473      4474      4475      4476      4477      4478      4479      4480
      4481      4482      4483      4484      4485      4486      4487      4488
      4489      4490      4491      4492      4493      4494      4495      4496
      4497      4498      4499      4500      4501      4502      4503      4504
      4505      4506      4507      4508      4509      4510      4511      4512
      4513      4514      4515      4516      4517      4518      4519      4520
      4521      4522      4523      4524      4525      4526      4527      4528
      4529      4530      4531      4532      4533      4534      4535      4536
      4537      4538      4539      4540      4541      4542      4543      4544
      4545      4546      4547      4548      4549      4550      4551      4552
      4553      4554      4555      4556      4557      4558      4559      4560
      4561      4562      4563      4564      4565      4566      4567      4568
      4569      4570      4571      4572      4573      4574      4575      4576
      4577      4578      4579      4580      4581      4582      4583      4584
      4585      4586      4587      4588      4589      4590      4591      4592
$ ... 25 like lines cut
$
$
$
$ =========
$ SET cards
$ =========
$
$
$: <No cross-references to SET_NODE 1 found>
$
*SET_NODE_LIST_TITLE
NODE RESTRAINT: GUI
         1       0.0       0.0       0.0       0.0
         5        10        30        60        90       110       112       114
       116       118       120       122       130       160       190       200
       220       298       300       301       302       304       305       365
       395       495       498       499       500       555       595       625
       634       639       645       651       655       670       703       710
       725       730       755       790       795       815       880       932
       937       940       943       948       954       959       965       971
       976       982       987       993       998      1004      1009      1015
      1021      1040      1102      1107      1110      1113      1118      1124
      1129      1200      1320      1410      1453      1458      1460      1464
      1469      1475      1481      1486      1492      1497      1503      1560
      1574      1579      1585      1590      1591      1596      1602      1607
      1615      1650      1680      1700      1790      1795      1801      1806
      1812      1817      1823      1828      1834      1839      1840      1866
      1960      2030      2070      2072      2074      2076      2080      2090
      2110      2120      2121      2122      2123      2124      2125      2130
      2150      2160      2180      2195      2200      2220      2230      2240
      2250      2262      2264      2266      2270      2290      2300      2310
      2320      2330      2340      2350      2360      2370      2380      3070
      4070      4260
$
$
*END
